ROMS/TOMS Framework: January 14, 2015
===================

Copyright (c) 2002-2015 The ROMS/TOMS Group
  Licensed under a MIT/X style license
  See License_ROMS.txt

svn: $HeadURL: https://www.myroms.org/svn/src/trunk/ROMS/Version $
svn: $LastChangedBy: arango $
svn: $LastChangedRevision: 755 $
svn: $LastChangedDate: 2015-01-14 22:52:27 +0000 (Wed, 14 Jan 2015) $